LTspice 24.1.9 for Windows
Circuit: C:\Users\User\Desktop\ProyectoFinal-Grupo5-VariadorDeFrecuencia\Hardware\Diseno\Digital inputs\Draft1.net
Start Time: Fri Jul 18 07:16:34 2025
solver = Normal
Maximum thread count: 20
tnom = 27
temp = 27
method = trap
Direct Newton iteration for .op point succeeded.
Total elapsed time: 1.911 seconds.

Files loaded:
C:\Users\User\Desktop\ProyectoFinal-Grupo5-VariadorDeFrecuencia\Hardware\Diseno\Digital inputs\Draft1.net
C:\Users\User\AppData\Local\LTspice\lib\cmp\standard.mos

